* PEX produced on Tue Sep 16 01:43:30 AM CST 2025 using ./iic-pex.sh with m=2 and s=1
* NGSPICE file created from tt_um_tsar_adc.ext - technology: sky130A

.subckt tt_um_tsar_adc clk ena rst_n ua[0] ua[1] ua[2] ua[3] ua[4] ua[5] ua[6] ua[7]
+ ui_in[0] ui_in[1] ui_in[2] ui_in[3] ui_in[4] ui_in[5] ui_in[6] ui_in[7] uio_in[0]
+ uio_in[1] uio_in[2] uio_in[3] uio_in[4] uio_in[5] uio_in[6] uio_in[7] uio_out[0]
+ uio_out[1] uo_out[0] uo_out[1] uo_out[2] uo_out[3] uo_out[4] uo_out[5] uo_out[6]
+ uo_out[7] VDPWR VGND
X0 VDPWR single_9b_cdac_0.cdac_sw_9b_0.cdac_sw_3_4.nooverlap_clk_0.x3.Y single_9b_cdac_0.cdac_sw_9b_0.cdac_sw_3_4.nooverlap_clk_0.x4.A VDPWR sky130_fd_pr__pfet_01v8 ad=0.3192 pd=2.81 as=0.168 ps=1.42 w=1.12 l=0.15
X1 a_8403_19478# sar9b_0.net47 VGND VGND sky130_fd_pr__nfet_01v8_lvt ad=0.0504 pd=0.66 as=0.1197 ps=1.41 w=0.42 l=0.15
X2 VDPWR single_9b_cdac_1.cdac_sw_9b_0.cdac_sw_3_6.nooverlap_clk_0.x10.A single_9b_cdac_1.cdac_sw_9b_0.cdac_sw_3_6.tg_sw_3_3.SWN VDPWR sky130_fd_pr__pfet_01v8 ad=0.196 pd=1.47 as=0.168 ps=1.42 w=1.12 l=0.15
X3 a_13164_28398# sar9b_0._06_ VGND VGND sky130_fd_pr__nfet_01v8_lvt ad=0.1197 pd=1.41 as=0.1638 ps=1.2 w=0.42 l=0.15
X4 VGND sar9b_0.net5 a_7914_19178# VGND sky130_fd_pr__nfet_01v8_lvt ad=0.1295 pd=1.09 as=0.2109 ps=2.05 w=0.74 l=0.15
X5 VDPWR a_10098_19171# a_9900_19047# VDPWR sky130_fd_pr__pfet_01v8 ad=0.1428 pd=1.225 as=0.2478 ps=2.27 w=0.84 l=0.15
X6 single_9b_cdac_1.cdac_sw_9b_0.S[1] single_9b_cdac_1.cdac_sw_9b_0.cdac_sw_3_1.tg_sw_3_3.SWN ua[0] VDPWR sky130_fd_pr__pfet_01v8 ad=0.435 pd=3.58 as=0.435 ps=3.58 w=1.5 l=0.5
X7 single_9b_cdac_0.cdac_sw_9b_0.S[4] single_9b_cdac_0.cdac_sw_9b_0.cdac_sw_3_3.tg_sw_3_3.SWP single_9b_cdac_0.cdac_sw_9b_0.S[4] VDPWR sky130_fd_pr__pfet_01v8 ad=0.435 pd=3.58 as=6.96 ps=57.28 w=1.5 l=0.5
X8 single_9b_cdac_1.cdac_sw_9b_0.cdac_sw_3_6.nooverlap_clk_0.CLK0 single_9b_cdac_1.cdac_sw_9b_0.cdac_sw_3_6.nooverlap_clk_0.CLKB0 VGND VGND sky130_fd_pr__nfet_01v8_lvt ad=0.1036 pd=1.02 as=0.1554 ps=1.16 w=0.74 l=0.15
X9 single_9b_cdac_1.cdac_sw_9b_0.cdac_sw_3_6.tg_sw_3_3.SWN single_9b_cdac_1.cdac_sw_9b_0.cdac_sw_3_6.nooverlap_clk_0.x10.A VDPWR VDPWR sky130_fd_pr__pfet_01v8 ad=0.168 pd=1.42 as=0.168 ps=1.42 w=1.12 l=0.15
X10 VGND single_9b_cdac_1.cdac_sw_9b_0.cdac_sw_3_5.nooverlap_clk_0.sky130_fd_sc_hs__inv_8_0.A single_9b_cdac_1.cdac_sw_9b_0.cdac_sw_3_5.nooverlap_clk_0.CLKB0 VGND sky130_fd_pr__nfet_01v8_lvt ad=0.1554 pd=1.16 as=0.1036 ps=1.02 w=0.74 l=0.15
X11 th_dif_sw_0.VCP single_9b_cdac_1.cdac_sw_9b_0.S[1] sky130_fd_pr__cap_mim_m3_1 l=2 w=2
X12 VDPWR a_4749_27652# sar9b_0.net58 VDPWR sky130_fd_pr__pfet_01v8 ad=0.2102 pd=1.505 as=0.168 ps=1.42 w=1.12 l=0.15
X13 single_9b_cdac_0.cdac_sw_9b_0.cdac_sw_3_4.nooverlap_clk_0.x4.A single_9b_cdac_0.cdac_sw_9b_0.cdac_sw_3_4.nooverlap_clk_0.x1.A VDPWR VDPWR sky130_fd_pr__pfet_01v8 ad=0.168 pd=1.42 as=0.3192 ps=2.81 w=1.12 l=0.15
X14 single_9b_cdac_0.cdac_sw_9b_0.cdac_sw_3_2.nooverlap_clk_0.CLK0 single_9b_cdac_0.cdac_sw_9b_0.cdac_sw_3_2.nooverlap_clk_0.CLKB0 VGND VGND sky130_fd_pr__nfet_01v8_lvt ad=0.1036 pd=1.02 as=0.2146 ps=2.06 w=0.74 l=0.15
X15 single_9b_cdac_1.cdac_sw_9b_0.cdac_sw_3_0.tg_sw_3_3.SWN single_9b_cdac_1.cdac_sw_9b_0.cdac_sw_3_0.nooverlap_clk_0.x10.A VGND VGND sky130_fd_pr__nfet_01v8_lvt ad=0.1036 pd=1.02 as=0.1554 ps=1.16 w=0.74 l=0.15
X16 th_dif_sw_0.VCN single_9b_cdac_0.cdac_sw_9b_0.S[3] sky130_fd_pr__cap_mim_m3_1 l=2 w=2
X17 th_dif_sw_0.VCP single_9b_cdac_1.cdac_sw_9b_0.S[3] sky130_fd_pr__cap_mim_m3_1 l=2 w=2
X18 a_7926_23234# sar9b_0.net62 VDPWR VDPWR sky130_fd_pr__pfet_01v8 ad=0.063 pd=0.72 as=0.1197 ps=1.41 w=0.42 l=0.15
X19 ua[0] single_9b_cdac_1.cdac_sw_9b_0.cdac_sw_3_7.tg_sw_3_3.SWN ua[0] VGND sky130_fd_pr__nfet_01v8 ad=0.145 pd=1.58 as=31.32 ps=341.28 w=0.5 l=0.5
X20 VDPWR single_9b_cdac_1.cdac_sw_9b_0.cdac_sw_3_6.nooverlap_clk_0.x10.A single_9b_cdac_1.cdac_sw_9b_0.cdac_sw_3_6.tg_sw_3_3.SWN VDPWR sky130_fd_pr__pfet_01v8 ad=0.168 pd=1.42 as=0.168 ps=1.42 w=1.12 l=0.15
X21 single_9b_cdac_1.cdac_sw_9b_0.cdac_sw_3_6.tg_sw_3_3.SWN single_9b_cdac_1.cdac_sw_9b_0.cdac_sw_3_6.nooverlap_clk_0.x10.A VGND VGND sky130_fd_pr__nfet_01v8_lvt ad=0.1036 pd=1.02 as=0.2109 ps=2.05 w=0.74 l=0.15
X22 VDPWR single_9b_cdac_0.cdac_sw_9b_0.cdac_sw_3_8.nooverlap_clk_0.x4.A single_9b_cdac_0.cdac_sw_9b_0.cdac_sw_3_8.nooverlap_clk_0.x6.A VDPWR sky130_fd_pr__pfet_01v8 ad=0.3864 pd=2.93 as=0.3304 ps=2.83 w=1.12 l=0.15
X23 a_38738_16877# single_9b_cdac_1.SW[5] VDPWR VDPWR sky130_fd_pr__pfet_01v8 ad=0.435 pd=3.58 as=0.435 ps=3.58 w=1.5 l=0.5
X24 th_dif_sw_0.VCP single_9b_cdac_1.cdac_sw_9b_0.S[0] sky130_fd_pr__cap_mim_m3_1 l=2 w=2
X25 a_54032_26990# single_9b_cdac_0.cdac_sw_9b_0.cdac_sw_3_0.nooverlap_clk_0.CLK0 single_9b_cdac_0.cdac_sw_9b_0.S[2] VGND sky130_fd_pr__nfet_01v8 ad=0.145 pd=1.58 as=0.145 ps=1.58 w=0.5 l=0.5
X26 a_5896_22188# a_4755_22138# a_5739_22488# VGND sky130_fd_pr__nfet_01v8_lvt ad=0.05565 pd=0.685 as=0.1181 ps=1.035 w=0.42 l=0.15
X27 VDPWR single_9b_cdac_1.cdac_sw_9b_0.cdac_sw_3_6.nooverlap_clk_0.sky130_fd_sc_hs__inv_8_0.A single_9b_cdac_1.cdac_sw_9b_0.cdac_sw_3_6.nooverlap_clk_0.CLKB0 VDPWR sky130_fd_pr__pfet_01v8 ad=0.3864 pd=2.93 as=0.168 ps=1.42 w=1.12 l=0.15
X28 th_dif_sw_0.VCP single_9b_cdac_1.cdac_sw_9b_0.S[2] sky130_fd_pr__cap_mim_m3_1 l=2 w=2
X29 single_9b_cdac_0.cdac_sw_9b_0.S[8] single_9b_cdac_0.cdac_sw_9b_0.cdac_sw_3_8.tg_sw_3_3.SWP single_9b_cdac_0.cdac_sw_9b_0.S[8] VDPWR sky130_fd_pr__pfet_01v8 ad=0.435 pd=3.58 as=6.96 ps=57.28 w=1.5 l=0.5
X30 single_9b_cdac_1.cdac_sw_9b_0.cdac_sw_3_6.tg_sw_3_3.SWN single_9b_cdac_1.cdac_sw_9b_0.cdac_sw_3_6.nooverlap_clk_0.x10.A VDPWR VDPWR sky130_fd_pr__pfet_01v8 ad=0.168 pd=1.42 as=0.196 ps=1.47 w=1.12 l=0.15
X31 VGND single_9b_cdac_0.cdac_sw_9b_0.cdac_sw_3_8.nooverlap_clk_0.CLKB0 single_9b_cdac_0.cdac_sw_9b_0.cdac_sw_3_8.nooverlap_clk_0.CLK0 VGND sky130_fd_pr__nfet_01v8_lvt ad=0.1036 pd=1.02 as=0.1036 ps=1.02 w=0.74 l=0.15
X32 single_9b_cdac_0.cdac_sw_9b_0.S[4] single_9b_cdac_0.cdac_sw_9b_0.cdac_sw_3_3.tg_sw_3_3.SWP ua[0] VGND sky130_fd_pr__nfet_01v8 ad=0.145 pd=1.58 as=0.145 ps=1.58 w=0.5 l=0.5
X33 a_40321_15495# single_9b_cdac_1.cdac_sw_9b_0.cdac_sw_3_5.nooverlap_clk_0.x3.Y VGND VGND sky130_fd_pr__nfet_01v8_lvt ad=0.0888 pd=0.98 as=0.2109 ps=2.05 w=0.74 l=0.15
X34 VDPWR single_9b_cdac_1.cdac_sw_9b_0.cdac_sw_3_4.nooverlap_clk_0.CLKB0 single_9b_cdac_1.cdac_sw_9b_0.cdac_sw_3_4.nooverlap_clk_0.CLK0 VDPWR sky130_fd_pr__pfet_01v8 ad=0.196 pd=1.47 as=0.168 ps=1.42 w=1.12 l=0.15
X35 th_dif_sw_0.VCN single_9b_cdac_0.cdac_sw_9b_0.S[2] sky130_fd_pr__cap_mim_m3_1 l=2 w=2
X36 VGND single_9b_cdac_1.cdac_sw_9b_0.cdac_sw_3_2.nooverlap_clk_0.x10.A single_9b_cdac_1.cdac_sw_9b_0.cdac_sw_3_2.tg_sw_3_3.SWN VGND sky130_fd_pr__nfet_01v8_lvt ad=0.2146 pd=2.06 as=0.1036 ps=1.02 w=0.74 l=0.15
X37 VGND a_13011_24802# single_9b_cdac_0.SW[0] VGND sky130_fd_pr__nfet_01v8_lvt ad=0.0588 pd=0.7 as=0.0672 ps=0.74 w=0.42 l=0.15
X38 tdc_0.phase_detector_0.pd_out_0.A tdc_0.phase_detector_0.pd_out_0.B a_16970_11404# VGND sky130_fd_pr__nfet_01v8 ad=0.29 pd=2.58 as=0.145 ps=1.29 w=1 l=0.15
X39 VGND single_9b_cdac_0.cdac_sw_9b_0.cdac_sw_3_4.tg_sw_3_3.SWN single_9b_cdac_0.cdac_sw_9b_0.cdac_sw_3_4.tg_sw_3_3.SWP VGND sky130_fd_pr__nfet_01v8_lvt ad=0.1295 pd=1.09 as=0.1036 ps=1.02 w=0.74 l=0.15
X40 single_9b_cdac_1.cdac_sw_9b_0.cdac_sw_3_6.nooverlap_clk_0.CLKB0 single_9b_cdac_1.cdac_sw_9b_0.cdac_sw_3_6.nooverlap_clk_0.sky130_fd_sc_hs__inv_8_0.A VDPWR VDPWR sky130_fd_pr__pfet_01v8 ad=0.168 pd=1.42 as=0.196 ps=1.47 w=1.12 l=0.15
X41 th_dif_sw_0.VCN single_9b_cdac_0.cdac_sw_9b_0.S[0] sky130_fd_pr__cap_mim_m3_1 l=2 w=2
X42 VDPWR single_9b_cdac_0.cdac_sw_9b_0.cdac_sw_3_8.nooverlap_clk_0.sky130_fd_sc_hs__inv_8_0.A single_9b_cdac_0.cdac_sw_9b_0.cdac_sw_3_8.nooverlap_clk_0.CLKB0 VDPWR sky130_fd_pr__pfet_01v8 ad=0.3304 pd=2.83 as=0.168 ps=1.42 w=1.12 l=0.15
X43 single_9b_cdac_0.cdac_sw_9b_0.S[8] single_9b_cdac_0.cdac_sw_9b_0.cdac_sw_3_8.tg_sw_3_3.SWN single_9b_cdac_0.cdac_sw_9b_0.S[8] VGND sky130_fd_pr__nfet_01v8 ad=0.145 pd=1.58 as=2.32 ps=25.28 w=0.5 l=0.5
X44 a_12047_26517# a_11842_26426# a_11382_26138# VDPWR sky130_fd_pr__pfet_01v8 ad=0.063 pd=0.72 as=0.1239 ps=1.43 w=0.42 l=0.15
X45 single_9b_cdac_1.cdac_sw_9b_0.cdac_sw_3_4.nooverlap_clk_0.CLK0 single_9b_cdac_1.cdac_sw_9b_0.cdac_sw_3_4.nooverlap_clk_0.CLKB0 VDPWR VDPWR sky130_fd_pr__pfet_01v8 ad=0.168 pd=1.42 as=0.168 ps=1.42 w=1.12 l=0.15
X46 th_dif_sw_0.VCP single_9b_cdac_1.cdac_sw_9b_0.S[3] sky130_fd_pr__cap_mim_m3_1 l=2 w=2
X47 VDPWR single_9b_cdac_0.cdac_sw_9b_0.cdac_sw_3_3.nooverlap_clk_0.x10.A single_9b_cdac_0.cdac_sw_9b_0.cdac_sw_3_3.tg_sw_3_3.SWN VDPWR sky130_fd_pr__pfet_01v8 ad=0.196 pd=1.47 as=0.168 ps=1.42 w=1.12 l=0.15
X48 single_9b_cdac_1.cdac_sw_9b_0.S[3] single_9b_cdac_1.cdac_sw_9b_0.cdac_sw_3_4.tg_sw_3_3.SWP single_9b_cdac_1.cdac_sw_9b_0.S[3] VDPWR sky130_fd_pr__pfet_01v8 ad=0.435 pd=3.58 as=6.96 ps=57.28 w=1.5 l=0.5
X49 dw_17224_1400# a_21368_4076# sky130_fd_pr__cap_mim_m3_1 l=2 w=2
X50 dw_12589_1395# a_10166_3438# sky130_fd_pr__cap_mim_m3_1 l=2 w=2
X51 th_dif_sw_0.VCN single_9b_cdac_0.cdac_sw_9b_0.S[0] sky130_fd_pr__cap_mim_m3_1 l=2 w=2
X52 a_8438_18958# a_8303_18859# VGND VGND sky130_fd_pr__nfet_01v8_lvt ad=0.24605 pd=1.405 as=0.21123 ps=1.45 w=0.74 l=0.15
X53 a_3855_25792# a_4125_25958# a_4083_25852# VGND sky130_fd_pr__nfet_01v8_lvt ad=0.1181 pd=1.035 as=0.05565 ps=0.685 w=0.42 l=0.15
X54 VGND a_12870_22267# a_12828_22145# VGND sky130_fd_pr__nfet_01v8_lvt ad=0.0756 pd=0.78 as=0.0504 ps=0.66 w=0.42 l=0.15
X55 ua[0] single_9b_cdac_1.cdac_sw_9b_0.cdac_sw_3_3.tg_sw_3_3.SWN ua[0] VGND sky130_fd_pr__nfet_01v8 ad=0.145 pd=1.58 as=0 ps=0 w=0.5 l=0.5
X56 VDPWR single_9b_cdac_1.cdac_sw_9b_0.cdac_sw_3_4.nooverlap_clk_0.CLKB0 single_9b_cdac_1.cdac_sw_9b_0.cdac_sw_3_4.nooverlap_clk_0.CLK0 VDPWR sky130_fd_pr__pfet_01v8 ad=0.168 pd=1.42 as=0.168 ps=1.42 w=1.12 l=0.15
X57 single_9b_cdac_0.cdac_sw_9b_0.cdac_sw_3_8.nooverlap_clk_0.CLKB0 single_9b_cdac_0.cdac_sw_9b_0.cdac_sw_3_8.nooverlap_clk_0.sky130_fd_sc_hs__inv_8_0.A VDPWR VDPWR sky130_fd_pr__pfet_01v8 ad=0.168 pd=1.42 as=0.196 ps=1.47 w=1.12 l=0.15
X58 single_9b_cdac_0.cdac_sw_9b_0.cdac_sw_3_3.tg_sw_3_3.SWN single_9b_cdac_0.cdac_sw_9b_0.cdac_sw_3_3.nooverlap_clk_0.x10.A VDPWR VDPWR sky130_fd_pr__pfet_01v8 ad=0.168 pd=1.42 as=0.3864 ps=2.93 w=1.12 l=0.15
X59 VGND sar9b_0.net52 a_12246_26198# VGND sky130_fd_pr__nfet_01v8_lvt ad=0.21123 pd=1.45 as=0.0504 ps=0.66 w=0.42 l=0.15
X60 dw_12589_1395# a_10166_3438# sky130_fd_pr__cap_mim_m3_1 l=2 w=2
X61 VGND sar9b_0.clknet_1_1__leaf_CLK a_2835_24136# VGND sky130_fd_pr__nfet_01v8_lvt ad=0.1739 pd=1.21 as=0.2109 ps=2.05 w=0.74 l=0.15
X62 sar9b_0.clknet_1_1__leaf_CLK a_2508_23444# VGND VGND sky130_fd_pr__nfet_01v8_lvt ad=0.0588 pd=0.7 as=0.0735 ps=0.77 w=0.42 l=0.15
X63 VGND a_13011_23238# single_9b_cdac_1.CF[5] VGND sky130_fd_pr__nfet_01v8_lvt ad=0.0588 pd=0.7 as=0.0672 ps=0.74 w=0.42 l=0.15
X64 a_5182_22567# sar9b_0.net64 VDPWR VDPWR sky130_fd_pr__pfet_01v8 ad=0.09835 pd=1.005 as=0.2972 ps=2.41 w=0.42 l=0.15
X65 VDPWR single_9b_cdac_1.cdac_sw_9b_0.cdac_sw_3_4.nooverlap_clk_0.x8.A single_9b_cdac_1.cdac_sw_9b_0.cdac_sw_3_4.nooverlap_clk_0.x10.A VDPWR sky130_fd_pr__pfet_01v8 ad=0.3304 pd=2.83 as=0.168 ps=1.42 w=1.12 l=0.15
X66 single_9b_cdac_0.cdac_sw_9b_0.cdac_sw_3_8.tg_sw_3_3.SWP single_9b_cdac_0.cdac_sw_9b_0.cdac_sw_3_8.tg_sw_3_3.SWN VDPWR VDPWR sky130_fd_pr__pfet_01v8 ad=0.168 pd=1.42 as=0.3864 ps=2.93 w=1.12 l=0.15
X67 ua[0] single_9b_cdac_0.cdac_sw_9b_0.cdac_sw_3_3.tg_sw_3_3.SWN ua[0] VGND sky130_fd_pr__nfet_01v8 ad=0.145 pd=1.58 as=0 ps=0 w=0.5 l=0.5
X68 VDPWR single_9b_cdac_0.cdac_sw_9b_0.cdac_sw_3_4.tg_sw_3_3.SWN single_9b_cdac_0.cdac_sw_9b_0.cdac_sw_3_4.tg_sw_3_3.SWP VDPWR sky130_fd_pr__pfet_01v8 ad=0.196 pd=1.47 as=0.168 ps=1.42 w=1.12 l=0.15
X69 VGND VDPWR VGND VGND sky130_fd_pr__nfet_01v8_lvt ad=0.1197 pd=1.41 as=282.12262 ps=2.58843k w=0.42 l=1
X70 a_12047_22521# a_11658_22138# a_11382_22142# VGND sky130_fd_pr__nfet_01v8_lvt ad=0.0735 pd=0.77 as=0.1197 ps=1.41 w=0.42 l=0.15
X71 a_5196_19448# sar9b_0.net16 VDPWR VDPWR sky130_fd_pr__pfet_01v8 ad=0.3304 pd=2.83 as=0.224 ps=1.52 w=1.12 l=0.15
X72 a_43540_16877# single_9b_cdac_1.SW[4] VDPWR VDPWR sky130_fd_pr__pfet_01v8 ad=0.435 pd=3.58 as=0.435 ps=3.58 w=1.5 l=0.5
X73 th_dif_sw_0.VCN single_9b_cdac_0.cdac_sw_9b_0.S[0] sky130_fd_pr__cap_mim_m3_1 l=2 w=2
X74 single_9b_cdac_1.cdac_sw_9b_0.cdac_sw_3_4.nooverlap_clk_0.CLK0 single_9b_cdac_1.cdac_sw_9b_0.cdac_sw_3_4.nooverlap_clk_0.CLKB0 VDPWR VDPWR sky130_fd_pr__pfet_01v8 ad=0.168 pd=1.42 as=0.196 ps=1.47 w=1.12 l=0.15
X75 th_dif_sw_0.VCP single_9b_cdac_1.cdac_sw_9b_0.S[2] sky130_fd_pr__cap_mim_m3_1 l=2 w=2
X76 VDPWR a_2508_20780# sar9b_0.clknet_1_0__leaf_CLK VDPWR sky130_fd_pr__pfet_01v8 ad=0.1736 pd=1.43 as=0.168 ps=1.42 w=1.12 l=0.15
X77 single_9b_cdac_1.cdac_sw_9b_0.cdac_sw_3_4.nooverlap_clk_0.x10.A single_9b_cdac_1.cdac_sw_9b_0.cdac_sw_3_4.nooverlap_clk_0.x8.A VDPWR VDPWR sky130_fd_pr__pfet_01v8 ad=0.168 pd=1.42 as=0.168 ps=1.42 w=1.12 l=0.15
X78 th_dif_sw_0.VCN single_9b_cdac_0.cdac_sw_9b_0.S[0] sky130_fd_pr__cap_mim_m3_1 l=2 w=2
X79 VGND single_9b_cdac_1.SW[1] a_58824_17740# VGND sky130_fd_pr__nfet_01v8 ad=0.145 pd=1.58 as=0.145 ps=1.58 w=0.5 l=0.5
X80 VGND single_9b_cdac_0.cdac_sw_9b_0.cdac_sw_3_0.nooverlap_clk_0.x1.A single_9b_cdac_0.cdac_sw_9b_0.cdac_sw_3_0.nooverlap_clk_0.sky130_fd_sc_hs__inv_8_0.A VGND sky130_fd_pr__nfet_01v8_lvt ad=0.2331 pd=2.11 as=0.1184 ps=1.06 w=0.74 l=0.15
X81 a_49221_26990# single_9b_cdac_0.cdac_sw_9b_0.cdac_sw_3_4.nooverlap_clk_0.CLK0 single_9b_cdac_0.cdac_sw_9b_0.S[3] VGND sky130_fd_pr__nfet_01v8 ad=0.145 pd=1.58 as=0.145 ps=1.58 w=0.5 l=0.5
X82 single_9b_cdac_0.cdac_sw_9b_0.cdac_sw_3_1.nooverlap_clk_0.CLKB0 single_9b_cdac_0.cdac_sw_9b_0.cdac_sw_3_1.nooverlap_clk_0.sky130_fd_sc_hs__inv_8_0.A VGND VGND sky130_fd_pr__nfet_01v8_lvt ad=0.1036 pd=1.02 as=0.1554 ps=1.16 w=0.74 l=0.15
X83 VDPWR single_9b_cdac_1.cdac_sw_9b_0.cdac_sw_3_4.nooverlap_clk_0.x8.A single_9b_cdac_1.cdac_sw_9b_0.cdac_sw_3_4.nooverlap_clk_0.x10.A VDPWR sky130_fd_pr__pfet_01v8 ad=0.168 pd=1.42 as=0.168 ps=1.42 w=1.12 l=0.15
X84 sar9b_0.net34 a_10284_25707# VGND VGND sky130_fd_pr__nfet_01v8_lvt ad=0.2109 pd=2.05 as=0.2109 ps=2.05 w=0.74 l=0.15
X85 VGND single_9b_cdac_1.cdac_sw_9b_0.cdac_sw_3_7.nooverlap_clk_0.sky130_fd_sc_hs__inv_8_0.A single_9b_cdac_1.cdac_sw_9b_0.cdac_sw_3_7.nooverlap_clk_0.CLKB0 VGND sky130_fd_pr__nfet_01v8_lvt ad=0.2146 pd=2.06 as=0.1036 ps=1.02 w=0.74 l=0.15
X86 VDPWR single_9b_cdac_1.cdac_sw_9b_0.cdac_sw_3_0.nooverlap_clk_0.sky130_fd_sc_hs__inv_8_0.A single_9b_cdac_1.cdac_sw_9b_0.cdac_sw_3_0.nooverlap_clk_0.CLKB0 VDPWR sky130_fd_pr__pfet_01v8 ad=0.196 pd=1.47 as=0.168 ps=1.42 w=1.12 l=0.15
X87 th_dif_sw_0.VCP single_9b_cdac_1.cdac_sw_9b_0.S[0] sky130_fd_pr__cap_mim_m3_1 l=2 w=2
X88 VGND sar9b_0.net47 a_7062_20813# VGND sky130_fd_pr__nfet_01v8_lvt ad=0.0756 pd=0.78 as=0.0441 ps=0.63 w=0.42 l=0.15
X89 th_dif_sw_0.VCN single_9b_cdac_0.cdac_sw_9b_0.S[3] sky130_fd_pr__cap_mim_m3_1 l=2 w=2
X90 th_dif_sw_0.VCN single_9b_cdac_0.cdac_sw_9b_0.S[2] sky130_fd_pr__cap_mim_m3_1 l=2 w=2
X91 VGND a_11915_28371# uo_out[0] VGND sky130_fd_pr__nfet_01v8_lvt ad=0.0588 pd=0.7 as=0.0588 ps=0.7 w=0.42 l=0.15
X92 VGND single_9b_cdac_0.cdac_sw_9b_0.cdac_sw_3_6.nooverlap_clk_0.x10.A single_9b_cdac_0.cdac_sw_9b_0.cdac_sw_3_6.tg_sw_3_3.SWN VGND sky130_fd_pr__nfet_01v8_lvt ad=0.2109 pd=2.05 as=0.1036 ps=1.02 w=0.74 l=0.15
X93 a_7890_26108# a_8345_26455# a_8294_26553# VDPWR sky130_fd_pr__pfet_01v8 ad=0.23015 pd=1.73 as=0.0567 ps=0.69 w=0.42 l=0.15
X94 th_dif_sw_0.VCP single_9b_cdac_1.cdac_sw_9b_0.S[2] sky130_fd_pr__cap_mim_m3_1 l=2 w=2
X95 a_44418_26990# single_9b_cdac_0.cdac_sw_9b_0.cdac_sw_3_3.nooverlap_clk_0.CLK0 single_9b_cdac_0.cdac_sw_9b_0.S[4] VGND sky130_fd_pr__nfet_01v8 ad=0.145 pd=1.58 as=0.145 ps=1.58 w=0.5 l=0.5
X96 VDPWR sar9b_0.net59 a_2847_26141# VDPWR sky130_fd_pr__pfet_01v8 ad=0.08925 pd=0.845 as=0.063 ps=0.72 w=0.42 l=0.15
X97 single_9b_cdac_1.cdac_sw_9b_0.cdac_sw_3_4.nooverlap_clk_0.x10.A single_9b_cdac_1.cdac_sw_9b_0.cdac_sw_3_4.nooverlap_clk_0.x8.A VDPWR VDPWR sky130_fd_pr__pfet_01v8 ad=0.168 pd=1.42 as=0.3304 ps=2.83 w=1.12 l=0.15
X98 VDPWR single_9b_cdac_0.cdac_sw_9b_0.cdac_sw_3_3.nooverlap_clk_0.CLKB0 single_9b_cdac_0.cdac_sw_9b_0.cdac_sw_3_3.nooverlap_clk_0.CLK0 VDPWR sky130_fd_pr__pfet_01v8 ad=0.196 pd=1.47 as=0.168 ps=1.42 w=1.12 l=0.15
X99 single_9b_cdac_0.cdac_sw_9b_0.cdac_sw_3_2.tg_sw_3_3.SWP single_9b_cdac_0.cdac_sw_9b_0.cdac_sw_3_2.tg_sw_3_3.SWN VGND VGND sky130_fd_pr__nfet_01v8_lvt ad=0.1036 pd=1.02 as=0.1295 ps=1.09 w=0.74 l=0.15
X100 a_12828_22145# a_11658_22138# a_12618_22138# VGND sky130_fd_pr__nfet_01v8_lvt ad=0.0504 pd=0.66 as=0.229 ps=1.64 w=0.42 l=0.15
X101 single_9b_cdac_1.cdac_sw_9b_0.S[4] single_9b_cdac_1.cdac_sw_9b_0.cdac_sw_3_3.tg_sw_3_3.SWP ua[0] VGND sky130_fd_pr__nfet_01v8 ad=0.145 pd=1.58 as=0.145 ps=1.58 w=0.5 l=0.5
X102 single_9b_cdac_1.cdac_sw_9b_0.cdac_sw_3_0.nooverlap_clk_0.CLKB0 single_9b_cdac_1.cdac_sw_9b_0.cdac_sw_3_0.nooverlap_clk_0.sky130_fd_sc_hs__inv_8_0.A VDPWR VDPWR sky130_fd_pr__pfet_01v8 ad=0.168 pd=1.42 as=0.168 ps=1.42 w=1.12 l=0.15
X103 th_dif_sw_0.VCP single_9b_cdac_1.cdac_sw_9b_0.S[1] sky130_fd_pr__cap_mim_m3_1 l=2 w=2
X104 a_2918_20140# a_2739_20140# VGND VGND sky130_fd_pr__nfet_01v8_lvt ad=0.2553 pd=2.17 as=0.1739 ps=1.21 w=0.74 l=0.15
X105 a_7343_27849# sar9b_0.net60 VDPWR VDPWR sky130_fd_pr__pfet_01v8 ad=0.1239 pd=1.43 as=0.13713 ps=1.155 w=0.42 l=0.15
X106 VDPWR a_11178_24802# a_11430_24931# VDPWR sky130_fd_pr__pfet_01v8 ad=0.1428 pd=1.225 as=0.063 ps=0.72 w=0.42 l=0.15
X107 VDPWR single_9b_cdac_1.cdac_sw_9b_0.cdac_sw_3_5.nooverlap_clk_0.sky130_fd_sc_hs__inv_8_0.A single_9b_cdac_1.cdac_sw_9b_0.cdac_sw_3_5.nooverlap_clk_0.CLKB0 VDPWR sky130_fd_pr__pfet_01v8 ad=0.3864 pd=2.93 as=0.168 ps=1.42 w=1.12 l=0.15
X108 single_9b_cdac_0.cdac_sw_9b_0.cdac_sw_3_3.nooverlap_clk_0.CLK0 single_9b_cdac_0.cdac_sw_9b_0.cdac_sw_3_3.nooverlap_clk_0.CLKB0 VDPWR VDPWR sky130_fd_pr__pfet_01v8 ad=0.168 pd=1.42 as=0.168 ps=1.42 w=1.12 l=0.15
X109 VDPWR a_4771_18260# sar9b_0.net56 VDPWR sky130_fd_pr__pfet_01v8 ad=0.168 pd=1.42 as=0.168 ps=1.42 w=1.12 l=0.15
X110 a_6634_18206# sar9b_0.net73 a_7155_18146# VGND sky130_fd_pr__nfet_01v8_lvt ad=0.1197 pd=1.41 as=0.0504 ps=0.66 w=0.42 l=0.15
X111 VGND single_9b_cdac_1.cdac_sw_9b_0.cdac_sw_3_3.nooverlap_clk_0.x8.A single_9b_cdac_1.cdac_sw_9b_0.cdac_sw_3_3.nooverlap_clk_0.x10.A VGND sky130_fd_pr__nfet_01v8_lvt ad=0.2109 pd=2.05 as=0.1036 ps=1.02 w=0.74 l=0.15
X112 VDPWR single_9b_cdac_1.cdac_sw_9b_0.cdac_sw_3_0.nooverlap_clk_0.sky130_fd_sc_hs__inv_8_0.A single_9b_cdac_1.cdac_sw_9b_0.cdac_sw_3_0.nooverlap_clk_0.CLKB0 VDPWR sky130_fd_pr__pfet_01v8 ad=0.168 pd=1.42 as=0.168 ps=1.42 w=1.12 l=0.15
X113 a_10895_22855# a_10690_22806# a_10230_23234# VDPWR sky130_fd_pr__pfet_01v8 ad=0.063 pd=0.72 as=0.1239 ps=1.43 w=0.42 l=0.15
X114 single_9b_cdac_1.cdac_sw_9b_0.cdac_sw_3_5.nooverlap_clk_0.CLKB0 single_9b_cdac_1.cdac_sw_9b_0.cdac_sw_3_5.nooverlap_clk_0.sky130_fd_sc_hs__inv_8_0.A VDPWR VDPWR sky130_fd_pr__pfet_01v8 ad=0.168 pd=1.42 as=0.196 ps=1.47 w=1.12 l=0.15
X115 th_dif_sw_0.th_sw_1.th_sw_main_0.VGS a_10254_2858# dw_12589_1395# dw_12589_1395# sky130_fd_pr__pfet_01v8 ad=0.58 pd=4.58 as=0.58 ps=4.58 w=2 l=0.15
X116 single_9b_cdac_0.cdac_sw_9b_0.S[4] single_9b_cdac_0.cdac_sw_9b_0.cdac_sw_3_3.tg_sw_3_3.SWN ua[0] VDPWR sky130_fd_pr__pfet_01v8 ad=0.435 pd=3.58 as=0.435 ps=3.58 w=1.5 l=0.5
X117 a_26951_29911# single_9b_cdac_0.cdac_sw_9b_0.cdac_sw_3_8.nooverlap_clk_0.x8.A VGND VGND sky130_fd_pr__nfet_01v8_lvt ad=0.0888 pd=0.98 as=0.2109 ps=2.05 w=0.74 l=0.15
X118 VGND a_6880_26815# sar9b_0.net21 VGND sky130_fd_pr__nfet_01v8_lvt ad=0.2109 pd=2.05 as=0.2109 ps=2.05 w=0.74 l=0.15
X119 VDPWR single_9b_cdac_0.cdac_sw_9b_0.cdac_sw_3_3.nooverlap_clk_0.CLKB0 single_9b_cdac_0.cdac_sw_9b_0.cdac_sw_3_3.nooverlap_clk_0.CLK0 VDPWR sky130_fd_pr__pfet_01v8 ad=0.168 pd=1.42 as=0.168 ps=1.42 w=1.12 l=0.15
X120 single_9b_cdac_0.SW[7] a_10859_26330# VGND VGND sky130_fd_pr__nfet_01v8_lvt ad=0.0588 pd=0.7 as=0.1197 ps=1.41 w=0.42 l=0.15
X121 single_9b_cdac_1.cdac_sw_9b_0.cdac_sw_3_0.nooverlap_clk_0.CLKB0 single_9b_cdac_1.cdac_sw_9b_0.cdac_sw_3_0.nooverlap_clk_0.sky130_fd_sc_hs__inv_8_0.A VDPWR VDPWR sky130_fd_pr__pfet_01v8 ad=0.168 pd=1.42 as=0.196 ps=1.47 w=1.12 l=0.15
X122 a_2706_26108# a_3161_26455# a_3110_26553# VDPWR sky130_fd_pr__pfet_01v8 ad=0.23015 pd=1.73 as=0.0567 ps=0.69 w=0.42 l=0.15
X123 single_9b_cdac_1.cdac_sw_9b_0.cdac_sw_3_8.nooverlap_clk_0.CLKB0 single_9b_cdac_1.cdac_sw_9b_0.cdac_sw_3_8.nooverlap_clk_0.sky130_fd_sc_hs__inv_8_0.A VDPWR VDPWR sky130_fd_pr__pfet_01v8 ad=0.168 pd=1.42 as=0.3304 ps=2.83 w=1.12 l=0.15
X124 VGND single_9b_cdac_1.cdac_sw_9b_0.cdac_sw_3_3.nooverlap_clk_0.x10.A single_9b_cdac_1.cdac_sw_9b_0.cdac_sw_3_3.tg_sw_3_3.SWN VGND sky130_fd_pr__nfet_01v8_lvt ad=0.1554 pd=1.16 as=0.1036 ps=1.02 w=0.74 l=0.15
X125 a_6534_27123# sar9b_0.net58 VDPWR VDPWR sky130_fd_pr__pfet_01v8 ad=0.063 pd=0.72 as=0.08925 ps=0.845 w=0.42 l=0.15
X126 a_7978_22202# sar9b_0.net47 VDPWR VDPWR sky130_fd_pr__pfet_01v8 ad=0.063 pd=0.72 as=0.1176 ps=1.4 w=0.42 l=0.15
X127 th_dif_sw_0.VCP single_9b_cdac_1.cdac_sw_9b_0.S[0] sky130_fd_pr__cap_mim_m3_1 l=2 w=2
X128 th_dif_sw_0.VCN single_9b_cdac_0.cdac_sw_9b_0.S[0] sky130_fd_pr__cap_mim_m3_1 l=2 w=2
X129 VDPWR single_9b_cdac_1.cdac_sw_9b_0.cdac_sw_3_5.tg_sw_3_3.SWN single_9b_cdac_1.cdac_sw_9b_0.cdac_sw_3_5.tg_sw_3_3.SWP VDPWR sky130_fd_pr__pfet_01v8 ad=0.196 pd=1.47 as=0.168 ps=1.42 w=1.12 l=0.15
X130 th_dif_sw_0.VCP single_9b_cdac_1.cdac_sw_9b_0.S[0] sky130_fd_pr__cap_mim_m3_1 l=2 w=2
X131 a_11842_19766# a_11658_19474# VDPWR VDPWR sky130_fd_pr__pfet_01v8 ad=0.3136 pd=2.8 as=0.168 ps=1.42 w=1.12 l=0.15
X132 VDPWR sar9b_0.net17 a_2931_28566# VDPWR sky130_fd_pr__pfet_01v8 ad=0.196 pd=1.47 as=0.3304 ps=2.83 w=1.12 l=0.15
X133 th_dif_sw_0.VCN single_9b_cdac_0.cdac_sw_9b_0.S[1] sky130_fd_pr__cap_mim_m3_1 l=2 w=2
X134 VGND single_9b_cdac_0.cdac_sw_9b_0.cdac_sw_3_3.nooverlap_clk_0.x1.A single_9b_cdac_0.cdac_sw_9b_0.cdac_sw_3_3.nooverlap_clk_0.sky130_fd_sc_hs__inv_8_0.A VGND sky130_fd_pr__nfet_01v8_lvt ad=0.2331 pd=2.11 as=0.1184 ps=1.06 w=0.74 l=0.15
X135 a_11436_17742# sar9b_0.net2 VGND VGND sky130_fd_pr__nfet_01v8_lvt ad=0.1197 pd=1.41 as=0.1638 ps=1.2 w=0.42 l=0.15
X136 single_9b_cdac_1.cdac_sw_9b_0.cdac_sw_3_5.tg_sw_3_3.SWP single_9b_cdac_1.cdac_sw_9b_0.cdac_sw_3_5.tg_sw_3_3.SWN VDPWR VDPWR sky130_fd_pr__pfet_01v8 ad=0.168 pd=1.42 as=0.3304 ps=2.83 w=1.12 l=0.15
X137 th_dif_sw_0.VCP single_9b_cdac_1.cdac_sw_9b_0.S[0] sky130_fd_pr__cap_mim_m3_1 l=2 w=2
X138 th_dif_sw_0.VCN single_9b_cdac_0.cdac_sw_9b_0.S[1] sky130_fd_pr__cap_mim_m3_1 l=2 w=2
X139 a_7155_18146# sar9b_0.net48 VGND VGND sky130_fd_pr__nfet_01v8_lvt ad=0.0504 pd=0.66 as=0.1197 ps=1.41 w=0.42 l=0.15
X140 VGND single_9b_cdac_1.SW[0] a_63626_17740# VGND sky130_fd_pr__nfet_01v8 ad=0.145 pd=1.58 as=0.145 ps=1.58 w=0.5 l=0.5
X141 single_9b_cdac_0.cdac_sw_9b_0.cdac_sw_3_7.nooverlap_clk_0.CLK0 single_9b_cdac_0.cdac_sw_9b_0.cdac_sw_3_7.nooverlap_clk_0.CLKB0 VGND VGND sky130_fd_pr__nfet_01v8_lvt ad=0.1036 pd=1.02 as=0.1295 ps=1.09 w=0.74 l=0.15
X142 th_dif_sw_0.VCP single_9b_cdac_1.cdac_sw_9b_0.S[1] sky130_fd_pr__cap_mim_m3_1 l=2 w=2
X143 th_dif_sw_0.VCN single_9b_cdac_0.cdac_sw_9b_0.S[3] sky130_fd_pr__cap_mim_m3_1 l=2 w=2
X144 uo_out[0] a_11915_28371# VGND VGND sky130_fd_pr__nfet_01v8_lvt ad=0.0672 pd=0.74 as=0.0588 ps=0.7 w=0.42 l=0.15
X145 VGND a_4044_24776# sar9b_0.net72 VGND sky130_fd_pr__nfet_01v8_lvt ad=0.1638 pd=1.2 as=0.119 ps=1.41 w=0.42 l=0.15
X146 a_24332_16877# single_9b_cdac_1.SW[8] VDPWR VDPWR sky130_fd_pr__pfet_01v8 ad=0.435 pd=3.58 as=0.435 ps=3.58 w=1.5 l=0.5
X147 single_9b_cdac_0.cdac_sw_9b_0.S[3] single_9b_cdac_0.cdac_sw_9b_0.cdac_sw_3_4.tg_sw_3_3.SWP ua[0] VGND sky130_fd_pr__nfet_01v8 ad=0.145 pd=1.58 as=0.145 ps=1.58 w=0.5 l=0.5
X148 sar9b_0.net40 a_6444_19448# VGND VGND sky130_fd_pr__nfet_01v8_lvt ad=0.2109 pd=2.05 as=0.2109 ps=2.05 w=0.74 l=0.15
X149 th_dif_sw_0.VCP single_9b_cdac_1.cdac_sw_9b_0.S[0] sky130_fd_pr__cap_mim_m3_1 l=2 w=2
X150 dw_12589_1395# a_10166_3438# sky130_fd_pr__cap_mim_m3_1 l=2 w=2
X151 th_dif_sw_0.VCP single_9b_cdac_1.cdac_sw_9b_0.S[3] sky130_fd_pr__cap_mim_m3_1 l=2 w=2
X152 VDPWR single_9b_cdac_0.cdac_sw_9b_0.cdac_sw_3_8.nooverlap_clk_0.x6.A single_9b_cdac_0.cdac_sw_9b_0.cdac_sw_3_8.nooverlap_clk_0.x8.A VDPWR sky130_fd_pr__pfet_01v8 ad=0.3864 pd=2.93 as=0.3304 ps=2.83 w=1.12 l=0.15
X153 VDPWR a_13216_23805# sar9b_0.net32 VDPWR sky130_fd_pr__pfet_01v8 ad=0.336 pd=2.84 as=0.3808 ps=2.92 w=1.12 l=0.15
X154 single_9b_cdac_1.SW[6] a_13011_17910# VGND VGND sky130_fd_pr__nfet_01v8_lvt ad=0.0588 pd=0.7 as=0.0588 ps=0.7 w=0.42 l=0.15
X155 VGND a_9588_27045# a_9593_26914# VGND sky130_fd_pr__nfet_01v8_lvt ad=0.1295 pd=1.09 as=0.2627 ps=2.19 w=0.74 l=0.15
X156 dw_12589_1395# a_10166_3438# sky130_fd_pr__cap_mim_m3_1 l=2 w=2
X157 th_dif_sw_0.VCN single_9b_cdac_0.cdac_sw_9b_0.S[1] sky130_fd_pr__cap_mim_m3_1 l=2 w=2
X158 single_9b_cdac_0.cdac_sw_9b_0.cdac_sw_3_5.nooverlap_clk_0.CLKB0 single_9b_cdac_0.cdac_sw_9b_0.cdac_sw_3_5.nooverlap_clk_0.sky130_fd_sc_hs__inv_8_0.A VGND VGND sky130_fd_pr__nfet_01v8_lvt ad=0.1036 pd=1.02 as=0.2146 ps=2.06 w=0.74 l=0.15
X159 VGND sar9b_0.net52 a_10710_25895# VGND sky130_fd_pr__nfet_01v8_lvt ad=0.0756 pd=0.78 as=0.0441 ps=0.63 w=0.42 l=0.15
X160 a_4125_25958# sar9b_0.clknet_1_1__leaf_CLK VDPWR VDPWR sky130_fd_pr__pfet_01v8 ad=0.3304 pd=2.83 as=0.168 ps=1.42 w=1.12 l=0.15
X161 single_9b_cdac_1.cdac_sw_9b_0.S[5] single_9b_cdac_1.cdac_sw_9b_0.cdac_sw_3_5.tg_sw_3_3.SWN single_9b_cdac_1.cdac_sw_9b_0.S[5] VGND sky130_fd_pr__nfet_01v8 ad=0.145 pd=1.58 as=2.32 ps=25.28 w=0.5 l=0.5
X162 th_dif_sw_0.VCP single_9b_cdac_1.cdac_sw_9b_0.S[1] sky130_fd_pr__cap_mim_m3_1 l=2 w=2
X163 th_dif_sw_0.VCN single_9b_cdac_0.cdac_sw_9b_0.S[0] sky130_fd_pr__cap_mim_m3_1 l=2 w=2
X164 VDPWR VGND VDPWR VDPWR sky130_fd_pr__pfet_01v8 ad=0.275 pd=2.55 as=486.22675 ps=3.99183k w=1 l=1
X165 sar9b_0.net1 a_6867_16810# VDPWR VDPWR sky130_fd_pr__pfet_01v8 ad=0.3304 pd=2.83 as=0.224 ps=1.52 w=1.12 l=0.15
X166 single_9b_cdac_1.cdac_sw_9b_0.cdac_sw_3_4.nooverlap_clk_0.x1.A single_9b_cdac_1.cdac_sw_9b_0.cdac_sw_3_4.nooverlap_clk_0.sky130_fd_sc_hs__inv_1_1.A VDPWR VDPWR sky130_fd_pr__pfet_01v8 ad=0.3304 pd=2.83 as=0.3864 ps=2.93 w=1.12 l=0.15
X167 a_5962_24151# a_5753_24250# a_5298_24499# VGND sky130_fd_pr__nfet_01v8_lvt ad=0.24605 pd=1.405 as=0.229 ps=1.64 w=0.74 l=0.15
X168 VGND a_4332_23043# sar9b_0.clknet_0_CLK VGND sky130_fd_pr__nfet_01v8_lvt ad=0.0735 pd=0.77 as=0.0588 ps=0.7 w=0.42 l=0.15
X169 VDPWR a_6834_20780# a_6636_20780# VDPWR sky130_fd_pr__pfet_01v8 ad=0.1428 pd=1.225 as=0.2478 ps=2.27 w=0.84 l=0.15
X170 a_10098_19171# a_10548_19053# a_10500_19235# VGND sky130_fd_pr__nfet_01v8_lvt ad=0.229 pd=1.64 as=0.0504 ps=0.66 w=0.42 l=0.15
X171 a_3561_22527# a_3027_22138# a_3454_22567# VGND sky130_fd_pr__nfet_01v8_lvt ad=0.07875 pd=0.865 as=0.15563 ps=1.215 w=0.42 l=0.15
X172 dw_12589_1395# a_10166_3438# sky130_fd_pr__cap_mim_m3_1 l=2 w=2
X173 th_dif_sw_0.VCP single_9b_cdac_1.cdac_sw_9b_0.S[1] sky130_fd_pr__cap_mim_m3_1 l=2 w=2
X174 th_dif_sw_0.VCN single_9b_cdac_0.cdac_sw_9b_0.S[3] sky130_fd_pr__cap_mim_m3_1 l=2 w=2
X175 single_9b_cdac_0.cdac_sw_9b_0.cdac_sw_3_6.nooverlap_clk_0.CLK0 single_9b_cdac_0.cdac_sw_9b_0.cdac_sw_3_6.nooverlap_clk_0.CLKB0 VGND VGND sky130_fd_pr__nfet_01v8_lvt ad=0.1036 pd=1.02 as=0.2146 ps=2.06 w=0.74 l=0.15
X176 a_12618_18142# a_11842_18434# a_12182_18427# VGND sky130_fd_pr__nfet_01v8_lvt ad=0.229 pd=1.64 as=0.24605 ps=1.405 w=0.74 l=0.15
X177 single_9b_cdac_0.cdac_sw_9b_0.S[5] single_9b_cdac_0.cdac_sw_9b_0.cdac_sw_3_5.tg_sw_3_3.SWP ua[0] VGND sky130_fd_pr__nfet_01v8 ad=0.145 pd=1.58 as=0.145 ps=1.58 w=0.5 l=0.5
X178 ua[0] single_9b_cdac_0.cdac_sw_9b_0.cdac_sw_3_4.tg_sw_3_3.SWN ua[0] VGND sky130_fd_pr__nfet_01v8 ad=0.145 pd=1.58 as=0 ps=0 w=0.5 l=0.5
X179 a_8006_17229# a_7743_16817# VDPWR VDPWR sky130_fd_pr__pfet_01v8 ad=0.0567 pd=0.69 as=0.08925 ps=0.845 w=0.42 l=0.15
X180 single_9b_cdac_1.cdac_sw_9b_0.cdac_sw_3_1.nooverlap_clk_0.x3.Y single_9b_cdac_1.CF[1] VGND VGND sky130_fd_pr__nfet_01v8_lvt ad=0.2109 pd=2.05 as=0.2627 ps=2.19 w=0.74 l=0.15
X181 single_9b_cdac_0.cdac_sw_9b_0.cdac_sw_3_2.tg_sw_3_3.SWN single_9b_cdac_0.cdac_sw_9b_0.cdac_sw_3_2.nooverlap_clk_0.x10.A VGND VGND sky130_fd_pr__nfet_01v8_lvt ad=0.1036 pd=1.02 as=0.1554 ps=1.16 w=0.74 l=0.15
X182 a_9414_23127# sar9b_0.net54 VDPWR VDPWR sky130_fd_pr__pfet_01v8 ad=0.063 pd=0.72 as=0.08925 ps=0.845 w=0.42 l=0.15
X183 a_6444_21738# sar9b_0._02_ VGND VGND sky130_fd_pr__nfet_01v8_lvt ad=0.1197 pd=1.41 as=0.1638 ps=1.2 w=0.42 l=0.15
X184 th_dif_sw_0.VCP single_9b_cdac_1.cdac_sw_9b_0.S[0] sky130_fd_pr__cap_mim_m3_1 l=2 w=2
X185 th_dif_sw_0.VCN single_9b_cdac_0.cdac_sw_9b_0.S[0] sky130_fd_pr__cap_mim_m3_1 l=2 w=2
X186 VGND a_9132_7271# th_dif_sw_0.th_sw_1.CK VGND sky130_fd_pr__nfet_01v8_lvt ad=0.1036 pd=1.02 as=0.1036 ps=1.02 w=0.74 l=0.15
X187 a_7404_17715# sar9b_0.net1 VGND VGND sky130_fd_pr__nfet_01v8_lvt ad=0.24915 pd=2.37 as=0.15198 ps=1.17 w=0.55 l=0.15
X188 th_dif_sw_0.VCP single_9b_cdac_1.cdac_sw_9b_0.S[0] sky130_fd_pr__cap_mim_m3_1 l=2 w=2
X189 VDPWR sar9b_0.net58 a_5046_27230# VDPWR sky130_fd_pr__pfet_01v8 ad=0.1176 pd=1.4 as=0.063 ps=0.72 w=0.42 l=0.15
X190 VGND single_9b_cdac_0.cdac_sw_9b_0.cdac_sw_3_6.nooverlap_clk_0.x10.A single_9b_cdac_0.cdac_sw_9b_0.cdac_sw_3_6.tg_sw_3_3.SWN VGND sky130_fd_pr__nfet_01v8_lvt ad=0.1036 pd=1.02 as=0.1036 ps=1.02 w=0.74 l=0.15
X191 single_9b_cdac_0.cdac_sw_9b_0.cdac_sw_3_0.tg_sw_3_3.SWN single_9b_cdac_0.cdac_sw_9b_0.cdac_sw_3_0.nooverlap_clk_0.x10.A VGND VGND sky130_fd_pr__nfet_01v8_lvt ad=0.1036 pd=1.02 as=0.1036 ps=1.02 w=0.74 l=0.15
X192 a_11568_24809# sar9b_0.net52 VGND VGND sky130_fd_pr__nfet_01v8_lvt ad=0.0441 pd=0.63 as=0.0756 ps=0.78 w=0.42 l=0.15
X193 a_7831_22521# a_7402_22441# VDPWR VDPWR sky130_fd_pr__pfet_01v8 ad=0.0504 pd=0.66 as=0.13713 ps=1.155 w=0.42 l=0.15
X194 th_dif_sw_0.VCP single_9b_cdac_1.cdac_sw_9b_0.S[0] sky130_fd_pr__cap_mim_m3_1 l=2 w=2